Circuit: * C:\Users\25sad\Downloads\EXP_5_Sadman_Rahman_22101008_SEC23\Task 1(a).asc

.OP point found by inspection.

Date: Thu Nov 30 00:25:32 2023
Total elapsed time: 0.063 seconds.

tnom = 27
temp = 27
method = trap
totiter = 2000
traniter = 0
tranpoints = 0
accept = 0
rejected = 0
matrix size = 3
fillins = 0
solver = Normal
Matrix Compiler1: 86 bytes object code size  0.1/0.1/[0.0]
Matrix Compiler2: 163 bytes object code size  0.1/0.1/[0.0]

