Circuit: * C:\Users\25sad\Downloads\EXP_5_Sadman_Rahman_22101008_SEC23\Task 3.asc

Direct Newton iteration for .op point succeeded.

Date: Thu Nov 30 00:33:21 2023
Total elapsed time: 0.205 seconds.

tnom = 27
temp = 27
method = modified trap
totiter = 10053
traniter = 10038
tranpoints = 5020
accept = 5020
rejected = 0
matrix size = 11
fillins = 2
solver = Normal
Matrix Compiler1: 570 bytes object code size  0.3/0.1/[0.1]
Matrix Compiler2: off  [0.2]/0.2/0.2

