Circuit: * C:\Users\25sad\Downloads\22101008_Sadman_Rahman_EXP_6_Lab_work_CSE251\EXP_6_Sadman_Rahman_22101008_SEC23\Task2.asc

.OP point found by inspection.
.step vgs=0
.step vgs=1
.step vgs=2
.step vgs=3
.step vgs=4
.step vgs=5
.step vgs=6
.step vgs=7

Date: Wed Dec 06 22:48:55 2023
Total elapsed time: 0.126 seconds.

tnom = 27
temp = 27
method = trap
totiter = 3234
traniter = 0
tranpoints = 0
accept = 0
rejected = 0
matrix size = 4
fillins = 0
solver = Normal
Matrix Compiler1: 118 bytes object code size  0.0/0.1/[0.0]
Matrix Compiler2: 216 bytes object code size  0.0/0.0/[0.0]

